I"Þ/Users/marvinclerge/Development/Module%202/Rails/rails-dynamic-request-readme-web-112017/app/assets/javascripts/application.js?type=application/javascript&id=843f1ee9096c6d8a02671bda9478dc7ab76cf72b854b266eda3ae1bc491bda7f:ET