I"ì/Users/marvinclerge/Development/Module%202/Rails/rails-dynamic-request-readme-web-112017/app/assets/javascripts/application.js?type=application/javascript&pipeline=self&id=b56b18f92f2295d5858866e05fd11233aa3749b3a5eea209f2fb97bc7fb7a95b:ET