I"ß/Users/marvinclerge/Development/Module%202/Rails/rails-dynamic-request-readme-web-112017/app/assets/stylesheets/application.css?type=text/css&pipeline=self&id=ae2bc0935b89130cac4a5912ce2499182379bb430f3797aeeacf33beb78f1af8:ET