I"í/Users/marvinclerge/Development/Module%202/Rails/rails-dynamic-request-readme-web-112017/app/assets/javascripts/application.js?type=application/javascript&pipeline=debug&id=63b9b872643623aeb98d7ac32a1514ea3e353c869220fcb823c3caef6e240d92:ET