I"Þ/Users/marvinclerge/Development/Module%202/Rails/rails-dynamic-request-readme-web-112017/app/assets/javascripts/application.js?type=application/javascript&id=58b491520f4c9a4f79b56e4a8b5b2afb230f12496d23d95d7723c6f952eda5f4:ET