I"Ñ/Users/marvinclerge/Development/Module%202/Rails/rails-dynamic-request-readme-web-112017/app/assets/stylesheets/application.css?type=text/css&id=8f364d7684721308b3b36462fc56b3a7ab4b13bded38a7d5d3781d145e3e0873:ET