I"ß/Users/marvinclerge/Development/Module%202/Rails/rails-dynamic-request-readme-web-112017/app/assets/stylesheets/application.css?type=text/css&pipeline=self&id=d8be37aaf7b6926e68186a3c68dbb515f78c18a69492ad0feecea54ddc7a59bc:ET