I"ì/Users/marvinclerge/Development/Module%202/Rails/rails-dynamic-request-readme-web-112017/app/assets/javascripts/application.js?type=application/javascript&pipeline=self&id=595755f06d1308ef8c1808187e9b9602c0bc5db3d8367aaeea3900e914df2547:ET