I"à/Users/marvinclerge/Development/Module%202/Rails/rails-dynamic-request-readme-web-112017/app/assets/stylesheets/application.css?type=text/css&pipeline=debug&id=391332af1468cc45fef75143fe0cc080c41fe6d4ac7f671d96277be42df4f0f5:ET