I"Ñ/Users/marvinclerge/Development/Module%202/Rails/rails-dynamic-request-readme-web-112017/app/assets/stylesheets/application.css?type=text/css&id=76e56d12656b8203a046bf816c66f1149e64d5dcdfca4fcc97fe8115a88353da:ET